<routes>
    <vType accel="2.0" decel="5.0" id="Car" length="2.0" maxSpeed="100.0" sigma="0.0" />
    <route id="route_ew" edges="e_0 0_w"/>
    <route id="route_we" edges="w_0 0_e"/>
    <flow depart="1" id="flow_e_w" route="route_ew" type="Car" begin="0" end="3600" probability="1" />
    <flow depart="1" id="flow_w_e" route="route_we" type="Car" begin="0" end="3600" probability="1" />
</routes>
